Version 4
SHEET 1 880 796
WIRE 352 240 -80 240
WIRE 352 256 352 240
WIRE 304 336 240 336
WIRE 240 384 240 336
WIRE 240 384 80 384
WIRE -80 432 -80 240
WIRE 80 432 80 384
WIRE 352 448 352 432
WIRE 240 528 240 384
WIRE 304 528 240 528
WIRE -80 560 -80 512
WIRE 80 560 80 512
WIRE 80 560 -80 560
WIRE 352 560 352 544
WIRE 352 560 80 560
WIRE 80 576 80 560
FLAG 80 576 0
SYMBOL voltage -80 416 R0
SYMATTR InstName Vds
SYMATTR Value 500m
SYMBOL voltage 80 416 R0
WINDOW 3 44 68 Bottom 1
SYMATTR Value 1.5
SYMATTR InstName Vgs
SYMBOL res 336 336 R0
SYMATTR InstName R1
SYMATTR Value 1m
SYMBOL pmos 304 256 R0
WINDOW 3 56 72 Left 1
SYMATTR Value TSMC180nmP w=1um l=180nm
SYMATTR InstName M1
SYMBOL nmos 304 448 R0
WINDOW 3 56 72 Left 1
SYMATTR Value TSMC180nmN w=1um l=180nm
SYMATTR InstName M2
TEXT -256 96 Left 2 !.INC /Users/vanessacerrone/Desktop/tsmc180nm.lib
TEXT -248 176 Left 2 !.dc Vgs 0 1.5 10m
